24
Coordinates from ORCA-job Stone-Wales_defect_loss_all_opt
  C   2.71298421600208     -3.33985907029249      0.00408862282025
  C   1.62894952381036     -3.98105538228225      0.00343311006043
  C   0.49399755947310     -3.18353207269706      0.00425633657058
  C   -0.87366918778543     -3.28194878469370      0.00415897719297
  C   -1.90681739844628     -2.62198050412133      0.00482240352459
  C   -2.27355126437604     -1.28619714461377      0.00617618604627
  C   -3.48376591912827     -0.56759823118329      0.00687620814728
  C   -3.68918606874886      0.65084166822616      0.00810090626790
  C   -2.71434594166232      1.66357684901013      0.00914046282442
  C   -2.52403474373496      3.04918640242731      0.01052025107029
  C   -1.45490923231414      3.68158257687912      0.01116213208327
  C   -0.14845918413508      3.18280865314331      0.01068132823039
  C   1.20836506103119      3.55134231969499      0.01105025377334
  C   2.17712504933983      2.78439639956928      0.01029357985810
  C   2.22588644525569      1.37790937874251      0.00890134657613
  C   3.22093036403385      0.41412545935610      0.00792594415340
  C   3.30220781818610     -0.80918935991331      0.00669363794271
  C   2.55836529959027     -1.96113444712599      0.00551677078035
  C   0.33107626214856     -0.55336918062113      0.00681459906704
  C   -1.42247968736763      1.01978882918565      0.00847404376336
  C   -1.16308129230826     -0.36553286718319      0.00706820837215
  C   1.04232257141807     -1.75530072711139      0.00562881548450
  C   0.88474817429057      0.84685583954253      0.00830328293240
  C   -0.20509842457239      1.74063339606179      0.00920259245787
