25
Coordinates from ORCA-job 4HCyclopentadefphenanthrene_opt
  C   -2.85804262620234      0.96205731055849     -0.00024781794534
  C   -3.38212974774615     -0.32542544390044     -0.00027950179387
  C   -2.57434054602811     -1.49220589878392     -0.00020944407824
  C   -1.20213496458839     -1.34019598603821     -0.00010756769321
  C   -0.70354425467009     -0.02915696163845     -0.00007980395732
  C   0.70354436430975     -0.02915702599973      0.00003872841576
  C   1.20213506912154     -1.34019600276180      0.00009674404448
  C   2.57434066856095     -1.49220593535948      0.00023080977270
  C   3.38212990707193     -0.32542550071222      0.00029684688193
  C   2.85804250406319      0.96205712403194      0.00023657563411
  C   1.45620697336320      1.14754235547777      0.00010298115728
  C   0.68728742458304      2.37021970199293      0.00003473863639
  C   -0.68728760345817      2.37021964661794     -0.00008087423019
  C   -1.45620716600416      1.14754224913620     -0.00014200931075
  C   0.00000000029020     -2.29501964228557     -0.00000437470101
  H   -3.52787943202686      1.81680914737772     -0.00030676672356
  H   -4.46079041348607     -0.44804017785465     -0.00035765271375
  H   -3.04788030149248     -2.46924005076700     -0.00023610333064
  H   3.04788036688112     -2.46924014341087      0.00028841698368
  H   4.46079064734493     -0.44804001440018      0.00040157447317
  H   3.52787939979912      1.81680888911365      0.00029441431687
  H   1.21505320581264      3.31966640097511      0.00007728905462
  H   -1.21505329375483      3.31966638841039     -0.00012584455256
  H   -0.00007476748188     -2.94902805869585      0.87870911292838
  H   0.00007458573792     -2.94901237108377     -0.87873047126893
