26
Coordinates from ORCA-job pyrene_opt
  C   -2.82751333634880      1.20836971596305     -0.00035216715034
  C   -3.51680981376207     -0.00004593793465     -0.00031893402988
  C   -2.82746318780587     -1.20843291843139     -0.00015919924306
  C   -1.42626083348602     -1.23396706411881     -0.00002623546338
  C   -0.67904710569912     -2.45967702629690      0.00013932361388
  C   0.67914915638704     -2.45964885493026      0.00026962083791
  C   1.42631201680836     -1.23390786432054      0.00024725512815
  C   2.82751329003267     -1.20831586178800      0.00038244788282
  C   3.51680978597862      0.00009973995261      0.00035702951092
  C   2.82746317514507      1.20848672564749      0.00019512185117
  C   1.42626086593589      1.23402090942613      0.00005515755919
  C   0.67904718856134      2.45973090180710     -0.00011367098861
  C   -0.67914908572469      2.45970274227632     -0.00024615279271
  C   -1.42631201837767      1.23396177016681     -0.00022098098764
  C   -0.71192808837814      0.00001217173694     -0.00005538810756
  C   0.71192803628849      0.00004168861417      0.00008156244842
  H   -3.37422645053907      2.14653418853517     -0.00047936964425
  H   -4.60201416834651     -0.00006858971845     -0.00042021350307
  H   -3.37413748629340     -2.14662009867651     -0.00013560330719
  H   -1.22714370500393     -3.39718552234977      0.00016065690123
  H   1.22728452785670     -3.39713466456656      0.00039672586234
  H   3.37422637517911     -2.14648030606956      0.00051070937900
  H   4.60201407569047      0.00012244212410      0.00046399128340
  H   3.37413772286301      2.14667363712496      0.00017665446402
  H   1.22714358528332      3.39723950382365     -0.00013425902487
  H   -1.22728452224480      3.39718857200292     -0.00037408247989
