28
Coordinates from ORCA-job 45Dihydropyrene_opt
  C   -2.83355758761386      1.23705084807756     -0.11891659673672
  C   -3.52414324030020      0.04442625329522     -0.07368102813139
  C   -2.82818575027012     -1.17035194238375      0.05046530952019
  C   -1.44631720718305     -1.19725403360002      0.09741595755195
  C   -0.67780154773847     -2.47108349928665      0.35690444262614
  C   0.67777208028048     -2.47220146495701     -0.35162715380004
  C   1.44652833096577     -1.19779163950243     -0.09573562629152
  C   2.82840254610333     -1.17101089464034     -0.04891745756119
  C   3.52458329335767      0.04398578425252      0.07182052186565
  C   2.83421883275774      1.23685699025838      0.11383322029086
  C   1.42389353555382      1.24932311878913      0.06673513663801
  C   0.67821439638247      2.47376669903775      0.04388909847282
  C   -0.67733644323106      2.47375962901361     -0.05218710011601
  C   -1.42323259421414      1.24939030043663     -0.07177862933284
  C   -0.72271806846865      0.01617233363098     -0.00480315007648
  C   0.72315672753166      0.01605102025406      0.00313821201661
  H   -3.36773321986638      2.18037233537766     -0.18235312123950
  H   -4.60863365079338      0.04075725559853     -0.11451115116448
  H   -3.38313005304366     -2.10115757843777      0.12638507852772
  H   -0.51388496276560     -2.55976142249784      1.43989930544548
  H   -1.26844937360401     -3.34185586443297      0.05921857439455
  H   1.26826211637949     -3.34224065514963     -0.05149743772789
  H   0.51382195905843     -2.56389902314126     -1.43436722977047
  H   3.38317790537867     -2.10212215910525     -0.12228178375356
  H   4.60907525469114      0.04023188904050      0.11259743107378
  H   3.36857296482775      2.18024921295713      0.17466151302885
  H   1.22502263811764      3.41132682144681      0.08258682382158
  H   -1.22397888229349      3.41130968566843     -0.09339315957209
